Header
  CHECK KEYWORDS Warn
  Mesh DB "." "."
  Include Path ""
  Results Directory ""
End

Simulation
  Max Output Level = 5
  Coordinate System = Cartesian
  Coordinate Mapping(3) = 1 2 3
  Simulation Type = Steady state
  Steady State Max Iterations = 1
  Output Intervals(1) = 1
  Solver Input File = case.sif
  Post File = case.vtu
End

Constants
  Gravity(4) = 0 -1 0 9.82
  Stefan Boltzmann = 5.670374419e-08
  Permittivity of Vacuum = 8.85418781e-12
  Permeability of Vacuum = 1.25663706e-6
  Boltzmann Constant = 1.380649e-23
  Unit Charge = 1.6021766e-19
End

Body 1
  Target Bodies(1) = 1
  Name = "Body 1"
  Equation = 1
  Material = 1
End

Body 2
  Target Bodies(1) = 2
  Name = "Body 2"
  Equation = 1
  Material = 2
End

Body 3
  Target Bodies(1) = 3
  Name = "Body 3"
  Equation = 1
  Material = 2
End

Body 4
  Target Bodies(1) = 4
  Name = "Body 4"
  Equation = 1
  Material = 2
End

Body 5
  Target Bodies(1) = 5
  Name = "Body 5"
  Equation = 1
  Material = 2
End

Solver 1
  Equation = Static Current Conduction
  Calculate Joule Heating = True
  Calculate Volume Current = True
  Variable = Potential
  Procedure = "StatCurrentSolve" "StatCurrentSolver"
  Constant Weights = True
  Exec Solver = Always
  Stabilize = True
  Optimize Bandwidth = True
  Steady State Convergence Tolerance = 1.0e-5
  Nonlinear System Convergence Tolerance = 1.0e-7
  Nonlinear System Max Iterations = 20
  Nonlinear System Newton After Iterations = 3
  Nonlinear System Newton After Tolerance = 1.0e-3
  Nonlinear System Relaxation Factor = 1
  Linear System Solver = Iterative
  Linear System Iterative Method = BiCGStab
  Linear System Max Iterations = 500
  Linear System Convergence Tolerance = 1.0e-10
  BiCGstabl polynomial degree = 2
  Linear System Preconditioning = ILU0
  Linear System ILUT Tolerance = 1.0e-3
  Linear System Abort Not Converged = False
  Linear System Residual Output = 10
  Linear System Precondition Recompute = 1
End

Equation 1
  Name = "Equation 1"
  Active Solvers(1) = 1
End

Material 1
  Name = "Silicon (solid)"
  Density = 2330.0
  Youngs modulus = 185.0e9
  Sound speed = 8433.0
  Heat Conductivity = Variable Temperature; Real; 0 156; 300 156; 550 72; 800 43; 1050 29; 1300 25; 1550 23; 1800 21; 3000 21; End
  Poisson ratio = 0.28
  Heat expansion Coefficient = 4.68e-6
  Heat Capacity = 555.8
  Emissivity = 0.7
  Electric Conductivity(2,2) = Variable "Magnetic Flux Density 3"
    Real MATC "#
      e = 1.602176634e-19;
      signq = -1;
      n = 1.0e22;
      mu_mag = 0.1;
      Bz = tx;
      beta = signq * mu_mag * Bz;
      sigma0 = n * e * mu_mag;
      s = sigma0/(1.0 + beta*beta);
      s, s*beta, -s*beta, s
    #"
End

Material 2
  Name = "Silver (generic)"
  Poisson ratio = 0.37
  Electric Conductivity = 63.01e6
  Density = 10490.0
  Youngs modulus = 83.0e9
  Heat Conductivity = 429.0
  Heat expansion Coefficient = 18.9e-6
  Sound speed = 2680.0
  Heat Capacity = 235.0
End

Boundary Condition 1
  Target Boundaries(4) = 1 13 14 15 
  Name = "+"
  Potential = 10
End

Boundary Condition 2
  Target Boundaries(4) = 7 16 17 18 
  Name = "-"
  Potential = 0
End
