Header
  CHECK KEYWORDS Warn
  Mesh DB "." "."
  Include Path ""
  Results Directory ""
End

Simulation
  Max Output Level = 1
  Coordinate System = Cartesian
  Coordinate Mapping(3) = 1 2 3
  Simulation Type = Steady state
  Steady State Max Iterations = 1
  Output Intervals(1) = 1
  Coordinate Scaling = 0.1
  Solver Input File = case.sif
  Post File = case2.vtu
End

Constants
  Gravity(4) = 0 -1 0 9.82
  Stefan Boltzmann = 5.670374419e-08
  Permittivity of Vacuum = 8.85418781e-12
  Permeability of Vacuum = 1.25663706e-6
  Boltzmann Constant = 1.380649e-23
  Unit Charge = 1.6021766e-19
End

Body 1
  Target Bodies(1) = 1
  Name = "Body 1"
  Equation = 1
  Material = 2
End

Body 2
  Target Bodies(1) = 2
  Name = "Body 2"
  Equation = 1
  Material = 1
End

Body 3
  Target Bodies(1) = 3
  Name = "Body 3"
  Equation = 1
  Material = 1
End

Body 4
  Target Bodies(1) = 4
  Name = "Body 4"
  Equation = 1
  Material = 1
End

Body 5
  Target Bodies(1) = 5
  Name = "Body 5"
  Equation = 1
  Material = 1
End

Body 6
  Target Bodies(1) = 6
  Name = "Body 6"
  Equation = 1
  Material = 1
End

Body 7
  Target Bodies(1) = 7
  Name = "Body 7"
  Equation = 1
  Material = 1
End

Body 8
  Target Bodies(1) = 8
  Name = "Body 8"
  Equation = 1
  Material = 1
End

Body 9
  Target Bodies(1) = 9
  Name = "Body 9"
  Equation = 1
  Material = 1
End

Solver 1
  Equation = Static Current Conduction
  Procedure = "StatCurrentSolve" "StatCurrentSolver"
  Calculate Joule Heating = True
  Calculate Volume Current = True
  Variable = Potential
  Constant Weights = True
  Exec Solver = Always
  Stabilize = True
  Optimize Bandwidth = True
  Steady State Convergence Tolerance = 1.0e-5
  Nonlinear System Convergence Tolerance = 1.0e-7
  Nonlinear System Max Iterations = 20
  Nonlinear System Newton After Iterations = 3
  Nonlinear System Newton After Tolerance = 1.0e-3
  Nonlinear System Relaxation Factor = 1
  Linear System Solver = Iterative
  Linear System Iterative Method = BiCGStab
  Linear System Max Iterations = 500
  Linear System Convergence Tolerance = 1.0e-10
  BiCGstabl polynomial degree = 2
  Linear System Preconditioning = ILU0
  Linear System ILUT Tolerance = 1.0e-3
  Linear System Abort Not Converged = False
  Linear System Residual Output = 10
  Linear System Precondition Recompute = 1

  Calculate Electric Field = Logical True
  Calculate Current Density = Logical True
  Exported Variable 1 = Electric Field
  Exported Variable 2 = Current Density

End

Equation 1
  Name = "Equation 1"
  Active Solvers(1) = 1
End

Material 1
  Name = "Silver (generic)"
  Density = 10490.0
  Sound speed = 2680.0
  Heat expansion Coefficient = 18.9e-6
  Electric Conductivity = 63.01e6
  Heat Capacity = 235.0
  Youngs modulus = 83.0e9
  Electric Conductivity = 6.3e7
  Poisson ratio = 0.37
  Heat Conductivity = 429.0
End

Material 2
  Name = "Silicon (solid)"
  Emissivity = 0.7
  Youngs modulus = 185.0e9
  Heat expansion Coefficient = 4.68e-6
  Electric Conductivity = 1.0e-3
  Density = 2330.0
  Sound speed = 8433.0
  Poisson ratio = 0.28
  Heat Capacity = 555.8
  Electric Conductivity = 1.56e-3
  Heat Conductivity = Variable Temperature; Real; 0 156; 300 156; 550 72; 800 43; 1050 29; 1300 25; 1550 23; 1800 21; 3000 21; End
End

Boundary Condition 1
  Target Boundaries(12) = 1 2 3 4 5 6 7 8 9 10 11 12 
  Name = "+"
  Potential = 1
End

Boundary Condition 2
  Target Boundaries(12) = 13 14 15 16 17 18 19 20 21 22 23 24 
  Name = "-"
  Potential = 0
End

Boundary Condition 3
  Target Boundaries(24) = 25 26 27 28 29 30 31 32 33 34 35 36 37 38 39 40 41 42 43 44 45 46 47 48 
  Name = "n"
  Current Density = 0
End
